<?xml version="1.0" encoding="UTF-8"?>

<!-- generated on Thu 28 Oct 2021 04:44:34 PM PDT by Eclipse SUMO netedit Version 1.4.0
<configuration xmlns:xsi="http://www.w3.org/2001/XMLSchema-instance" xsi:noNamespaceSchemaLocation="http://sumo.dlr.de/xsd/netconvertConfiguration.xsd">

    <output>
        <output-file value="/home/mroger/Desktop/VanetResearch/VANET-Research/SumoCFG/TwoVehiclesCrossNetwork.net.xml"/>
    </output>

    <processing>
        <offset.disable-normalization value="true"/>
    </processing>

    <junctions>
        <no-turnarounds value="true"/>
    </junctions>

    <netedit>
        <route-files value="/home/mroger/Desktop/VanetResearch/VANET-Research/SumoCFG/TwoVehiclesCrossingDemand.rou.xml"/>
    </netedit>

    <report>
        <aggregate-warnings value="5"/>
    </report>

</configuration>
-->

<routes xmlns:xsi="http://www.w3.org/2001/XMLSchema-instance" xsi:noNamespaceSchemaLocation="http://sumo.dlr.de/xsd/routes_file.xsd">
    <route edges="gneE0" color="yellow" id="route_0"/>
    <route edges="gneE1" color="yellow" id="route_1"/>
    <vehicle id="vehicle_0" depart="0.00" route="route_0"/>
    <vehicle id="vehicle_1" depart="0.00" route="route_1"/>
</routes>
