<?xml version="1.0" encoding="UTF-8"?>

<!-- generated on Thu 28 Oct 2021 04:44:11 PM PDT by Eclipse SUMO netedit Version 1.4.0
<configuration xmlns:xsi="http://www.w3.org/2001/XMLSchema-instance" xsi:noNamespaceSchemaLocation="http://sumo.dlr.de/xsd/netconvertConfiguration.xsd">

    <output>
        <output-file value="/home/mroger/Desktop/VanetResearch/VANET-Research/SumoCFG/TwoVehiclesCrossNetwork.net.xml"/>
    </output>

    <processing>
        <offset.disable-normalization value="true"/>
    </processing>

    <junctions>
        <no-turnarounds value="true"/>
    </junctions>

    <report>
        <aggregate-warnings value="5"/>
    </report>

</configuration>
-->

<net version="1.3" junctionCornerDetail="5" limitTurnSpeed="5.50" xmlns:xsi="http://www.w3.org/2001/XMLSchema-instance" xsi:noNamespaceSchemaLocation="http://sumo.dlr.de/xsd/net_file.xsd">

    <location netOffset="0.00,0.00" convBoundary="0.00,0.00,75.00,75.00" origBoundary="10000000000.00,10000000000.00,-10000000000.00,-10000000000.00" projParameter="!"/>

    <edge id="gneE0" from="gneJ0" to="gneJ1" priority="-1">
        <lane id="gneE0_0" index="0" speed="13.89" length="106.07" shape="1.13,-1.13 76.13,73.87"/>
    </edge>
    <edge id="gneE1" from="gneJ2" to="gneJ3" priority="-1">
        <lane id="gneE1_0" index="0" speed="13.89" length="106.07" shape="-1.13,73.87 73.87,-1.13"/>
    </edge>

    <junction id="gneJ0" type="dead_end" x="0.00" y="0.00" incLanes="" intLanes="" shape="0.00,0.00 2.26,-2.26"/>
    <junction id="gneJ1" type="dead_end" x="75.00" y="75.00" incLanes="gneE0_0" intLanes="" shape="77.26,72.74 75.00,75.00"/>
    <junction id="gneJ2" type="dead_end" x="0.00" y="75.00" incLanes="" intLanes="" shape="0.00,75.00 -2.26,72.74"/>
    <junction id="gneJ3" type="dead_end" x="75.00" y="0.00" incLanes="gneE1_0" intLanes="" shape="72.74,-2.26 75.00,0.00"/>

</net>
